<connections>
    <crossing node="C" edges="CE EC" width="6"/>
</connections>