<configuration>

<input>
<net-file value="my_net3.net.xml"/>
<route-files value="my_route.rou.xml"/>
</input>
<time>
<begin value="0"/>
<end value="2000"/>
</time>

</configuration>