<edges>
<edge from="n1" to="n2" id="1to2" type="3L45"/>
<edge from="n2" to="n3" id="2to3" type="2L15"/>
<edge from="n2" to="n1" id="2to1" type="3L45"/>
<edge from="n3" to="n2" id="3to2" type="3L45"/>

</edges>