<edges>
    <edge id="CE" from="C" to="E" priority="1" numLanes="2" disallow="pedestrian" speed="13.89"/>
    <edge id="CW" from="C" to="W" priority="1" numLanes="2" disallow="pedestrian" speed="13.89"/>
    <edge id="EC" from="E" to="C" priority="1" numLanes="2" disallow="pedestrian" speed="13.89"/>
    <edge id="WC" from="W" to="C" priority="1" numLanes="2" disallow="pedestrian" speed="13.89"/>

    <edge id="NC" from="N" to="C" priority="1" numLanes="1" allow="pedestrian" speed="5.00" spreadType="center" width="3.00"/>
    <edge id="CS" from="C" to="S" priority="1" numLanes="1" allow="pedestrian" speed="5.00" spreadType="center" width="3.00"/>
</edges>