<?xml version="1.0" encoding="UTF-8"?>

<!-- generated on 06/27/19 18:44:23 by Eclipse SUMO netconvert Version 1.2.0
<configuration xmlns:xsi="http://www.w3.org/2001/XMLSchema-instance" xsi:noNamespaceSchemaLocation="http://sumo.dlr.de/xsd/netconvertConfiguration.xsd">

    <input>
        <node-files value="my_nodes.nod.xml"/>
        <edge-files value="my_edge.edg.xml"/>
        <type-files value="my_type.type.xml"/>
    </input>

    <output>
        <output-file value="my_net2.net.xml"/>
    </output>

</configuration>
-->

<net version="1.1" junctionCornerDetail="5" limitTurnSpeed="5.50" xmlns:xsi="http://www.w3.org/2001/XMLSchema-instance" xsi:noNamespaceSchemaLocation="http://sumo.dlr.de/xsd/net_file.xsd">

    <location netOffset="300.00,0.00" convBoundary="0.00,0.00,600.00,0.00" origBoundary="-300.00,0.00,300.00,0.00" projParameter="!"/>

    <type id="2L15" priority="3" numLanes="2" speed="15.00"/>
    <type id="3L45" priority="3" numLanes="2" speed="45.00"/>

    <edge id=":n2_0" function="internal">
        <lane id=":n2_0_0" index="0" speed="30.00" length="0.10" shape="300.00,-4.80 300.00,-4.80"/>
        <lane id=":n2_0_1" index="1" speed="30.00" length="0.10" shape="300.00,-1.60 300.00,-1.60"/>
    </edge>

    <edge id="1to2" from="n1" to="n2" priority="3" type="3L45">
        <lane id="1to2_0" index="0" speed="45.00" length="300.00" shape="0.00,-4.80 300.00,-4.80"/>
        <lane id="1to2_1" index="1" speed="45.00" length="300.00" shape="0.00,-1.60 300.00,-1.60"/>
    </edge>
    <edge id="2to3" from="n2" to="n3" priority="3" type="2L15">
        <lane id="2to3_0" index="0" speed="15.00" length="300.00" shape="300.00,-4.80 600.00,-4.80"/>
        <lane id="2to3_1" index="1" speed="15.00" length="300.00" shape="300.00,-1.60 600.00,-1.60"/>
    </edge>

    <tlLogic id="n2" type="static" programID="0" offset="0">
        <phase duration="76" state="GG"/>
        <phase duration="9"  state="yy"/>
        <phase duration="5"  state="rr"/>
    </tlLogic>

    <junction id="n1" type="dead_end" x="0.00" y="0.00" incLanes="" intLanes="" shape="0.00,0.00 0.00,-6.40"/>
    <junction id="n2" type="traffic_light" x="300.00" y="0.00" incLanes="1to2_0 1to2_1" intLanes=":n2_0_0 :n2_0_1" shape="300.00,0.00 300.00,-6.40 300.00,0.00">
        <request index="0" response="00" foes="00" cont="0"/>
        <request index="1" response="00" foes="00" cont="0"/>
    </junction>
    <junction id="n3" type="dead_end" x="600.00" y="0.00" incLanes="2to3_0 2to3_1" intLanes="" shape="600.00,-6.40 600.00,0.00"/>

    <connection from="1to2" to="2to3" fromLane="0" toLane="0" via=":n2_0_0" tl="n2" linkIndex="0" dir="s" state="O"/>
    <connection from="1to2" to="2to3" fromLane="1" toLane="1" via=":n2_0_1" tl="n2" linkIndex="1" dir="s" state="O"/>

    <connection from=":n2_0" to="2to3" fromLane="0" toLane="0" dir="s" state="M"/>
    <connection from=":n2_0" to="2to3" fromLane="1" toLane="1" dir="s" state="M"/>

</net>
