<?xml version="1.0" encoding="UTF-8"?>

<!-- generated on 06/29/19 19:37:23 by Eclipse SUMO netconvert Version 1.2.0
<configuration xmlns:xsi="http://www.w3.org/2001/XMLSchema-instance" xsi:noNamespaceSchemaLocation="http://sumo.dlr.de/xsd/netconvertConfiguration.xsd">

    <input>
        <node-files value="my_nodes.nod.xml"/>
        <edge-files value="my_edge.edg.xml"/>
        <type-files value="my_type.type.xml"/>
    </input>

    <output>
        <output-file value="my_net3.net.xml"/>
    </output>

</configuration>
-->

<net version="1.1" junctionCornerDetail="5" limitTurnSpeed="5.50" xmlns:xsi="http://www.w3.org/2001/XMLSchema-instance" xsi:noNamespaceSchemaLocation="http://sumo.dlr.de/xsd/net_file.xsd">

    <location netOffset="300.00,0.00" convBoundary="0.00,0.00,600.00,0.00" origBoundary="-300.00,0.00,300.00,0.00" projParameter="!"/>

    <type id="2L15" priority="3" numLanes="1" speed="15.00"/>
    <type id="3L45" priority="3" numLanes="1" speed="45.00"/>

    <edge id=":n1_0" function="internal">
        <lane id=":n1_0_0" index="0" speed="3.65" length="4.67" shape="0.00,1.60 -1.20,0.80 -1.60,0.00 -1.20,-0.80 0.00,-1.60"/>
    </edge>
    <edge id=":n2_0" function="internal">
        <lane id=":n2_0_0" index="0" speed="45.00" length="0.10" shape="300.00,1.60 300.00,1.60"/>
    </edge>
    <edge id=":n2_1" function="internal">
        <lane id=":n2_1_0" index="0" speed="30.00" length="0.10" shape="300.00,-1.60 300.00,-1.60"/>
    </edge>
    <edge id=":n3_0" function="internal">
        <lane id=":n3_0_0" index="0" speed="3.65" length="4.67" shape="600.00,-1.60 601.20,-0.80 601.60,0.00 601.20,0.80 600.00,1.60"/>
    </edge>

    <edge id="1to2" from="n1" to="n2" priority="3" type="3L45">
        <lane id="1to2_0" index="0" speed="45.00" length="300.00" shape="0.00,-1.60 300.00,-1.60"/>
    </edge>
    <edge id="2to1" from="n2" to="n1" priority="3" type="3L45">
        <lane id="2to1_0" index="0" speed="45.00" length="300.00" shape="300.00,1.60 0.00,1.60"/>
    </edge>
    <edge id="2to3" from="n2" to="n3" priority="3" type="2L15">
        <lane id="2to3_0" index="0" speed="15.00" length="300.00" shape="300.00,-1.60 600.00,-1.60"/>
    </edge>
    <edge id="3to2" from="n3" to="n2" priority="3" type="3L45">
        <lane id="3to2_0" index="0" speed="45.00" length="300.00" shape="600.00,1.60 300.00,1.60"/>
    </edge>

    <tlLogic id="n2" type="static" programID="0" offset="0">
        <phase duration="76" state="GG"/>
        <phase duration="9"  state="yy"/>
        <phase duration="5"  state="rr"/>
    </tlLogic>
    <tlLogic id="n3" type="static" programID="0" offset="0">
        <phase duration="82" state="G"/>
        <phase duration="3"  state="y"/>
        <phase duration="5"  state="r"/>
    </tlLogic>

    <junction id="n1" type="priority" x="0.00" y="0.00" incLanes="2to1_0" intLanes=":n1_0_0" shape="0.00,0.00 0.00,3.20 0.00,0.00">
        <request index="0" response="0" foes="0" cont="0"/>
    </junction>
    <junction id="n2" type="traffic_light" x="300.00" y="0.00" incLanes="3to2_0 1to2_0" intLanes=":n2_0_0 :n2_1_0" shape="300.00,3.20 300.00,-3.20 300.00,3.20">
        <request index="0" response="00" foes="00" cont="0"/>
        <request index="1" response="00" foes="00" cont="0"/>
    </junction>
    <junction id="n3" type="traffic_light" x="600.00" y="0.00" incLanes="2to3_0" intLanes=":n3_0_0" shape="600.00,0.00 600.00,-3.20 600.00,0.00">
        <request index="0" response="0" foes="0" cont="0"/>
    </junction>

    <connection from="1to2" to="2to3" fromLane="0" toLane="0" via=":n2_1_0" tl="n2" linkIndex="1" dir="s" state="O"/>
    <connection from="2to1" to="1to2" fromLane="0" toLane="0" via=":n1_0_0" dir="t" state="M"/>
    <connection from="2to3" to="3to2" fromLane="0" toLane="0" via=":n3_0_0" tl="n3" linkIndex="0" dir="t" state="O"/>
    <connection from="3to2" to="2to1" fromLane="0" toLane="0" via=":n2_0_0" tl="n2" linkIndex="0" dir="s" state="O"/>

    <connection from=":n1_0" to="1to2" fromLane="0" toLane="0" dir="t" state="M"/>
    <connection from=":n2_0" to="2to1" fromLane="0" toLane="0" dir="s" state="M"/>
    <connection from=":n2_1" to="2to3" fromLane="0" toLane="0" dir="s" state="M"/>
    <connection from=":n3_0" to="3to2" fromLane="0" toLane="0" dir="t" state="M"/>

</net>
