<nodes>
    <location netOffset="0.00,0.00" convBoundary="-100.00,-50.00,100.00,50.00" origBoundary="-10000000000.00,-10000000000.00,10000000000.00,10000000000.00" projParameter="!"/>

    <node id="C" x="0.00" y="0.00" type="traffic_light"/>
    <node id="E" x="100.00" y="0.00" type="unregulated"/>
    <node id="N" x="0.00" y="50.00" type="unregulated"/>
    <node id="S" x="0.00" y="-50.00" type="unregulated"/>
    <node id="W" x="-100.00" y="0.00" type="unregulated"/>
</nodes>